/*--------------------------------*- C++ -*----------------------------------*\
  =========                 |
  \\      /  F ield         | OpenFOAM: The Open Source CFD Toolbox
   \\    /   O peration     | Website:  https://openfoam.org
    \\  /    A nd           | Version:  6  
     \\/     M anipulation  |
\*---------------------------------------------------------------------------*/
FoamFile
{
    version     2.0;
    format      ascii;
    class       dictionary;
    location    "system";
    object      setFieldsDict;
}
// * * * * * * * * * * * * * * * * * * * * * * * * * * * * * * * * * * * * * //

defaultFieldValues
(
    volScalarFieldValue alpha.air 1
    volScalarFieldValue alpha.particles 0
    volVectorFieldValue U.air (0 0  2.4)
);

regions
(
    boxToCell
    {
        box (-0.0725 -0.01 0) (0.0725 0.01 0.15);
        fieldValues
        (
            volScalarFieldValue alpha.air 0.59
            volScalarFieldValue alpha.particles 0.41
        );
    }
);

// ************************************************************************* //
