/*--------------------------------*- C++ -*----------------------------------*\
  =========                 |
  \\      /  F ield         | OpenFOAM: The Open Source CFD Toolbox
   \\    /   O peration     | Website:  https://openfoam.org
    \\  /    A nd           | Version:  6
     \\/     M anipulation  |
\*---------------------------------------------------------------------------*/
FoamFile
{
    version     2.0;
    format      ascii;
    class       dictionary;
    object      controlDict;
}
// * * * * * * * * * * * * * * * * * * * * * * * * * * * * * * * * * * * * * //

application     pisoFoam;

startFrom       startTime;

startTime       0;

stopAt          endTime;

endTime         100;

deltaT          1.0;

writeControl    runTime;

writeInterval   1000;

purgeWrite      0;

writeFormat     ascii;

writePrecision  8;

writeCompression off;

timeFormat      general;

timePrecision   6;

runTimeModifiable true;

adjustTimeStep  no;

// ************************************************************************* //

functions
{
    #include "monitorU"

    fieldAverage
    {
        type            fieldAverage;
        functionObjectLibs ("libfieldFunctionObjects.so");

        enabled         true;

        writeControl   timeStep;
        writeInterval  100;

        fields
        (
            U
            {
                mean        on;
                prime2Mean  on;
                base        time;
            }
        );
    }

    cuttingPlane
    {
        type            surfaces;
        libs            ("libsampling.so");
        writeControl    timeStep;
        writeInterval   100;


        surfaceFormat   vtk;
        fields          (UMean);

        interpolationScheme cellPoint;

        surfaces
        (
            zNormal
            {
                type            cuttingPlane;
                planeType       pointAndNormal;
                pointAndNormalDict
                {
                    point   (0 0 0);
                    normal  (0 0 1);
                }
                interpolate     true;
            }
        );
    }
};
