/*--------------------------------*- C++ -*----------------------------------*\
| =========                 |                                                 |
| \\      /  F ield         | OpenFOAM: The Open Source CFD Toolbox           |
|  \\    /   O peration     | Version:  6                                     |
|   \\  /    A nd           | Web:      www.OpenFOAM.com                      |
|    \\/     M anipulation  |                                                 |
\*---------------------------------------------------------------------------*/
FoamFile
{
    version     2.0;
    format      ascii;
    class       dictionary;
    object      tsProperties;
}
// * * * * * * * * * * * * * * * * * * * * * * * * * * * * * * * * * * * * * //
#include "../referenceState"
#include "../mode"

tstart ${tstart};

timeSeries "../referenceData/data_referenceTimeSeries";

minSourceElement 0;

maxSourceElement 100000;

patches ("in" "out" "cylinder");

components (0 1);

mode ${mode}; 

minKuu 1e-4;
// ************************************************************************* //
