/*--------------------------------*- C++ -*----------------------------------*\
| =========                 |                                                 |
| \\      /  F ield         | OpenFOAM: The Open Source CFD Toolbox           |
|  \\    /   O peration     | Version:  2.4.0                                 |
|   \\  /    A nd           | Web:      www.OpenFOAM.org                      |
|    \\/     M anipulation  |                                                 |
\*---------------------------------------------------------------------------*/
FoamFile
{
    version     2.0;
    format      ascii;
    class       dictionary;
    location    "system";
    object      setFieldsDict;
}
// * * * * * * * * * * * * * * * * * * * * * * * * * * * * * * * * * * * * * //

defaultFieldValues
(
    volScalarFieldValue alpha.air 0.999 
    volScalarFieldValue alpha.particles 0.001
    volVectorFieldValue U.air (0 0 5)
    volVectorFieldValue U.particles (0 0 4.5)
);

regions
(
    boxToCell
    {
        box ( 0.1525 -1 0 ) (1 1 10 );
        fieldValues
        (
            volScalarFieldValue alpha.air 0.6
            volScalarFieldValue alpha.particles 0.4
  //          volVectorFieldValue U.air (-0.15 0 0)

        );
    }
);


// ************************************************************************* //
