/*--------------------------------*- C++ -*----------------------------------*\
| =========                 |                                                 |
| \\      /  F ield         | OpenFOAM: The Open Source CFD Toolbox           |
|  \\    /   O peration     | Version:  6                                     |
|   \\  /    A nd           | Web:      www.OpenFOAM.com                      |
|    \\/     M anipulation  |                                                 |
\*---------------------------------------------------------------------------*/
FoamFile
{
    version     2.0;
    format      ascii;
    class       volScalarField;
    object      p;
}
// * * * * * * * * * * * * * * * * * * * * * * * * * * * * * * * * * * * * * //

dimensions      [0 2 -2 0 0 0 0];

internalField   uniform 0;

boundaryField
{
    in
    {
        type            zeroGradient;
    }

    out
    {
        type            fixedValue;
        value           uniform 0;
    }

    cylinder
    {
        type            zeroGradient;
    }

    sym1
    {
        //type            symmetry;
        type            symmetryPlane;
    }

    sym2
    {
        type            symmetryPlane;
    }

    back
    {
        type            empty;
    }

    front
    {
        type            empty;
    }
}

// ************************************************************************* //
