/*--------------------------------*- C++ -*----------------------------------*\
  =========                 |
  \\      /  F ield         | OpenFOAM: The Open Source CFD Toolbox
   \\    /   O peration     | Website:  https://openfoam.org
    \\  /    A nd           | Version:  6
     \\/     M anipulation  |
\*---------------------------------------------------------------------------*/
FoamFile
{
    version     2.0;
    format      ascii;
    class       dictionary;
    location    "system";
    object      mapFieldsDict;
}
// * * * * * * * * * * * * * * * * * * * * * * * * * * * * * * * * * * * * * //

patchMap        ( );

cuttingPatches  (leftPatch);

//if a new field is calculated (only works for scalars!)
//fieldName	defineNameOfNewField;

//fieldsList	(list of fields in the calculation);
//prefactorsList	(factors to multiply each field in the list by);

// ************************************************************************* //
