/*--------------------------------*- C++ -*----------------------------------*\
  =========                 |
  \\      /  F ield         | OpenFOAM: The Open Source CFD Toolbox
   \\    /   O peration     | Website:  https://openfoam.org
    \\  /    A nd           | Version:  6
     \\/     M anipulation  |
\*---------------------------------------------------------------------------*/
FoamFile
{
    version     2.0;
    format      ascii;
    class       dictionary;
    object      dataBaseProperties;
}
// * * * * * * * * * * * * * * * * * * * * * * * * * * * * * * * * * * * * * //
dataBases ("../propagatorGeneration/dataBase");

fieldNorm diffNorm;

referenceStates generalReferenceStates;

deviationPropagators singlePhaseDeviationPropagators;


generalReferenceStatesProps
{
    verbose true;
    volVectorRefStates ("U");
}

singlePhaseDeviationPropagatorsProps
{}

diffNormProps
{
    fieldName "U";
}

minKuu 1e-4;

correctP true;
// ************************************************************************* //
