/*--------------------------------*- C++ -*----------------------------------*\
  =========                 |
  \\      /  F ield         | OpenFOAM: The Open Source CFD Toolbox
   \\    /   O peration     | Website:  https://openfoam.org
    \\  /    A nd           | Version:  6
     \\/     M anipulation  |
\*---------------------------------------------------------------------------*/
FoamFile
{
    version     2.0;
    format      ascii;
    class       dictionary;
    object      controlDict;
}
// * * * * * * * * * * * * * * * * * * * * * * * * * * * * * * * * * * * * * //

application     pisoFoam;

startFrom       startTime;

startTime       0;

stopAt          endTime;

endTime         181;

deltaT          0.01;

writeControl    runTime;

writeInterval   181;

purgeWrite      0;

writeFormat     ascii;

writePrecision  8;

writeCompression off;

timeFormat      general;

timePrecision   6;

runTimeModifiable true;

adjustTimeStep  no;

// ************************************************************************* //

functions
{
    forces_object
    {
        type forces;
        functionObjectLibs ("libforces.so");

        enabled         false;

        //writeControl outputTime;
        writeControl   timeStep;
        writeInterval  1;

        //// Patches to sample
        //patches ("body1" "body2" "body3");
        patches ("cylinder");

        //// Name of fields
        pName p;
        Uname U;

        //// Density
        rho rhoInf;
        rhoInf 1.;

        //// Centre of rotation
        CofR (0 0 0);
    }

    forceCoeffs_object
    {
        // rhoInf - reference density
        // CofR - Centre of rotation
        // dragDir - Direction of drag coefficient
        // liftDir - Direction of lift coefficient
        // pitchAxis - Pitching moment axis
        // magUinf - free stream velocity magnitude
        // lRef - reference length
        // Aref - reference area
        type forceCoeffs;
        functionObjectLibs ("libforces.so");
        //patches ("body1" "body2" "body3");
        patches (cylinder);

        pName p;
        Uname U;
        rho rhoInf;
        rhoInf 1.0;

        //// Dump to file
        log true;

        CofR (0.0 0 0);
        liftDir (0 1 0);
        dragDir (1 0 0);
        pitchAxis (0 0 1);
        magUInf 1.0;
        lRef 1;           // reference lenght for moments!!!
        Aref 2.0;         // reference area 1 for 2d

        writeControl   timeStep;
        writeInterval  1;
    }
};
